sectionalized/no_load/20pc/TNB_DUMA_VLN.Txt

SYMMETRICAL COMPONENT VOLTAGES BY BUS (for 3-phase buses)

Bus               Mag:   V1 (kV)    p.u.     V2 (kV)   %V2/V1    V0 (kV)    %V0/V1

ppu_duma_33kv        19.12      1.003  9.323E-009  4.877E-008 1.239E-009 6.483E-009
ppu_duma_11kv_a       6.38      1.005  3.303E-009  5.177E-008 1.418E-011 2.222E-010
ppu_duma_11kv_b      6.379      1.004  3.303E-009  5.178E-008 2.019E-011 3.165E-010
rpplngi2             6.412       1.01  3.318E-009  5.175E-008 2.086E-011 3.253E-010
pdtjlnmasjid         6.437      1.014  3.329E-009  5.172E-008 2.153E-011 3.345E-010
bella                6.453      1.016  3.337E-009  5.17E-008 2.205E-011 3.417E-010
pstpdgn              6.461      1.017  3.34E-009  5.17E-008 2.233E-011 3.456E-010
atria_1              6.424      1.011  3.323E-009  5.173E-008 2.116E-011 3.293E-010
hawker               6.431      1.013  3.327E-009  5.173E-008 2.795E-011 4.347E-010
duma7                6.391      1.006  3.309E-009  5.177E-008 2.039E-011 3.19E-010
haus                 6.416       1.01  3.32E-009  5.175E-008 2.784E-011 4.339E-010
duma6                6.483      1.021  3.352E-009  5.171E-008 6.665E-011 1.028E-009
duma13               6.544       1.03  3.381E-009  5.167E-008 1.044E-010 1.595E-009
ssu_duma5_im2        6.552      1.032  3.385E-009  5.167E-008 1.049E-010 1.601E-009
pdtlitrak             6.46      1.017  3.34E-009  5.17E-008 2.234E-011 3.457E-010
duma12               6.493      1.022  3.355E-009  5.167E-008 2.355E-011 3.628E-010
tmngh4               6.523      1.027  3.369E-009  5.164E-008 3.929E-011 6.023E-010
ssu_tmegah3_ir1      6.536      1.029  3.375E-009  5.163E-008 4.724E-011 7.228E-010
tmngh2               6.541       1.03  3.377E-009  5.163E-008 5.08E-011 7.766E-010
ssu_uptwres_im2      6.392      1.006  3.309E-009  5.177E-008 2.343E-011 3.666E-010
maybank              6.408      1.009  3.316E-009  5.175E-008 2.421E-011 3.779E-010
duma8                6.411       1.01  3.318E-009  5.175E-008 2.559E-011 3.991E-010
duma9                6.436      1.013  3.329E-009  5.172E-008 2.151E-011 3.342E-010
duma1                6.459      1.017  3.339E-009  5.17E-008 2.225E-011 3.445E-010
elite                6.467      1.018  3.343E-009  5.169E-008 2.254E-011 3.485E-010
pamdra               6.383      1.005  3.304E-009  5.177E-008 1.423E-011 2.23E-010
duma4                6.394      1.007  3.31E-009  5.176E-008 1.859E-011 2.908E-010
plsdra               6.419      1.011  3.321E-009  5.174E-008 3.417E-011 5.324E-010
prmte                 6.41      1.009  3.317E-009  5.174E-008 2.979E-011 4.647E-010
prmta                6.414       1.01  3.319E-009  5.174E-008 3.013E-011 4.697E-010
pmontb               6.418      1.011  3.321E-009  5.174E-008 3.282E-011 5.113E-010
plngi_b              6.396      1.007  3.31E-009  5.176E-008 1.449E-011 2.266E-010
plngi_d              6.405      1.008  3.314E-009  5.175E-008 1.469E-011 2.294E-010
sprk9                6.454      1.016  3.336E-009  5.17E-008 1.632E-011 2.528E-010
bomba                6.458      1.017  3.338E-009  5.17E-008 1.783E-011 2.761E-010
sprk8                6.468      1.018  3.343E-009  5.169E-008 2.311E-011 3.573E-010
ssu_dsarcntr_ir1     6.388      1.006  3.307E-009  5.176E-008 1.432E-011 2.242E-010
duma10               6.419      1.011  3.321E-009  5.173E-008 1.511E-011 2.354E-010
balaipolis            6.42      1.011  3.321E-009  5.173E-008 1.512E-011 2.356E-010
ssu_uptwres_ir1      6.423      1.011  3.323E-009  5.173E-008 3.447E-011 5.366E-010
ppu_duma_vcb1            0          0          0          0         0         0
